BEGIN Configuration File: runfiles/customconfig
// $Id $

// Copyright (c) 2007-2015, Trustees of The Leland Stanford Junior University
// All rights reserved.
//
// Redistribution and use in source and binary forms, with or without
// modification, are permitted provided that the following conditions are met:
//
// Redistributions of source code must retain the above copyright notice, this
// list of conditions and the following disclaimer.
// Redistributions in binary form must reproduce the above copyright notice,
// this list of conditions and the following disclaimer in the documentation
// and/or other materials provided with the distribution.
//
// THIS SOFTWARE IS PROVIDED BY THE COPYRIGHT HOLDERS AND CONTRIBUTORS "AS IS"
// AND ANY EXPRESS OR IMPLIED WARRANTIES, INCLUDING, BUT NOT LIMITED TO, THE
// IMPLIED WARRANTIES OF MERCHANTABILITY AND FITNESS FOR A PARTICULAR PURPOSE
// ARE DISCLAIMED. IN NO EVENT SHALL THE COPYRIGHT OWNER OR CONTRIBUTORS BE
// LIABLE FOR ANY DIRECT, INDIRECT, INCIDENTAL, SPECIAL, EXEMPLARY, OR
// CONSEQUENTIAL DAMAGES (INCLUDING, BUT NOT LIMITED TO, PROCUREMENT OF
// SUBSTITUTE GOODS OR SERVICES; LOSS OF USE, DATA, OR PROFITS; OR BUSINESS
// INTERRUPTION) HOWEVER CAUSED AND ON ANY THEORY OF LIABILITY, WHETHER IN
// CONTRACT, STRICT LIABILITY, OR TORT (INCLUDING NEGLIGENCE OR OTHERWISE)
// ARISING IN ANY WAY OUT OF THE USE OF THIS SOFTWARE, EVEN IF ADVISED OF THE
// POSSIBILITY OF SUCH DAMAGE.


//
// Flow control
//

num_vcs     = 16;
vc_buf_size = 8;

wait_for_tail_credit = 1;


vc_allocator = islip; 
sw_allocator = islip;
alloc_iters  = 2;

credit_delay   = 2;
routing_delay  = 0;
vc_alloc_delay = 1;
sw_alloc_delay = 1;
st_final_delay = 1;

input_speedup     = 1;
output_speedup    = 1;
internal_speedup  = 1.0;

//
// Traffic
//

sim_type = latency;

warmup_periods = 3;

sample_period  = 1000;  

sim_count          = 1;



//topoogy

topology = mesh;
k  = 8;
n  = 2;
//
// Routing


routing_function = custom;

packet_size = 1;

use_read_write = 0;

traffic       = uniform;

injection_rate = 0.00;




END Configuration File: runfiles/customconfig
Class 0:
Packet latency average = -nan
	minimum = nan
	maximum = -nan
Network latency average = -nan
	minimum = nan
	maximum = -nan
Slowest packet = -1
Flit latency average = -nan
	minimum = nan
	maximum = -nan
Slowest flit = -1
Fragmentation average = -nan
	minimum = nan
	maximum = -nan
Injected packet rate average = 0
	minimum = 0 (at node 0)
	maximum = 0 (at node 0)
Accepted packet rate average = 0
	minimum = 0 (at node 0)
	maximum = 0 (at node 0)
Injected flit rate average = 0
	minimum = 0 (at node 0)
	maximum = 0 (at node 0)
Accepted flit rate average= 0
	minimum = 0 (at node 0)
	maximum = 0 (at node 0)
Injected packet length average = -nan
Accepted packet length average = -nan
Total in-flight flits = 0 (0 measured)
latency change    = nan
throughput change = nan
Class 0:
Packet latency average = -nan
	minimum = nan
	maximum = -nan
Network latency average = -nan
	minimum = nan
	maximum = -nan
Slowest packet = -1
Flit latency average = -nan
	minimum = nan
	maximum = -nan
Slowest flit = -1
Fragmentation average = -nan
	minimum = nan
	maximum = -nan
Injected packet rate average = 0
	minimum = 0 (at node 0)
	maximum = 0 (at node 0)
Accepted packet rate average = 0
	minimum = 0 (at node 0)
	maximum = 0 (at node 0)
Injected flit rate average = 0
	minimum = 0 (at node 0)
	maximum = 0 (at node 0)
Accepted flit rate average= 0
	minimum = 0 (at node 0)
	maximum = 0 (at node 0)
Injected packet length average = -nan
Accepted packet length average = -nan
Total in-flight flits = 0 (0 measured)
latency change    = nan
throughput change = nan
Class 0:
Packet latency average = -nan
	minimum = nan
	maximum = -nan
Network latency average = -nan
	minimum = nan
	maximum = -nan
Slowest packet = -1
Flit latency average = -nan
	minimum = nan
	maximum = -nan
Slowest flit = -1
Fragmentation average = -nan
	minimum = nan
	maximum = -nan
Injected packet rate average = 0
	minimum = 0 (at node 0)
	maximum = 0 (at node 0)
Accepted packet rate average = 0
	minimum = 0 (at node 0)
	maximum = 0 (at node 0)
Injected flit rate average = 0
	minimum = 0 (at node 0)
	maximum = 0 (at node 0)
Accepted flit rate average= 0
	minimum = 0 (at node 0)
	maximum = 0 (at node 0)
Injected packet length average = -nan
Accepted packet length average = -nan
Total in-flight flits = 0 (0 measured)
latency change    = nan
throughput change = nan
Warmed up ...Time used is 3000 cycles
Class 0:
Packet latency average = -nan
	minimum = nan
	maximum = -nan
Network latency average = -nan
	minimum = nan
	maximum = -nan
Slowest packet = -1
Flit latency average = -nan
	minimum = nan
	maximum = -nan
Slowest flit = -1
Fragmentation average = -nan
	minimum = nan
	maximum = -nan
Injected packet rate average = 0
	minimum = 0 (at node 0)
	maximum = 0 (at node 0)
Accepted packet rate average = 0
	minimum = 0 (at node 0)
	maximum = 0 (at node 0)
Injected flit rate average = 0
	minimum = 0 (at node 0)
	maximum = 0 (at node 0)
Accepted flit rate average= 0
	minimum = 0 (at node 0)
	maximum = 0 (at node 0)
Injected packet length average = -nan
Accepted packet length average = -nan
Total in-flight flits = 0 (0 measured)
latency change    = nan
throughput change = nan
Class 0:
Packet latency average = -nan
	minimum = nan
	maximum = -nan
Network latency average = -nan
	minimum = nan
	maximum = -nan
Slowest packet = -1
Flit latency average = -nan
	minimum = nan
	maximum = -nan
Slowest flit = -1
Fragmentation average = -nan
	minimum = nan
	maximum = -nan
Injected packet rate average = 0
	minimum = 0 (at node 0)
	maximum = 0 (at node 0)
Accepted packet rate average = 0
	minimum = 0 (at node 0)
	maximum = 0 (at node 0)
Injected flit rate average = 0
	minimum = 0 (at node 0)
	maximum = 0 (at node 0)
Accepted flit rate average= 0
	minimum = 0 (at node 0)
	maximum = 0 (at node 0)
Injected packet length average = -nan
Accepted packet length average = -nan
Total in-flight flits = 0 (0 measured)
latency change    = nan
throughput change = nan
Class 0:
Packet latency average = -nan
	minimum = nan
	maximum = -nan
Network latency average = -nan
	minimum = nan
	maximum = -nan
Slowest packet = -1
Flit latency average = -nan
	minimum = nan
	maximum = -nan
Slowest flit = -1
Fragmentation average = -nan
	minimum = nan
	maximum = -nan
Injected packet rate average = 0
	minimum = 0 (at node 0)
	maximum = 0 (at node 0)
Accepted packet rate average = 0
	minimum = 0 (at node 0)
	maximum = 0 (at node 0)
Injected flit rate average = 0
	minimum = 0 (at node 0)
	maximum = 0 (at node 0)
Accepted flit rate average= 0
	minimum = 0 (at node 0)
	maximum = 0 (at node 0)
Injected packet length average = -nan
Accepted packet length average = -nan
Total in-flight flits = 0 (0 measured)
latency change    = nan
throughput change = nan
Draining all recorded packets ...
Draining remaining packets ...
Time taken is 6001 cycles
====== Overall Traffic Statistics ======
====== Traffic class 0 ======
Packet latency average = -nan (1 samples)
	minimum = nan (1 samples)
	maximum = -nan (1 samples)
Network latency average = -nan (1 samples)
	minimum = nan (1 samples)
	maximum = -nan (1 samples)
Flit latency average = -nan (1 samples)
	minimum = nan (1 samples)
	maximum = -nan (1 samples)
Fragmentation average = -nan (1 samples)
	minimum = nan (1 samples)
	maximum = -nan (1 samples)
Injected packet rate average = 0 (1 samples)
	minimum = 0 (1 samples)
	maximum = 0 (1 samples)
Accepted packet rate average = 0 (1 samples)
	minimum = 0 (1 samples)
	maximum = 0 (1 samples)
Injected flit rate average = 0 (1 samples)
	minimum = 0 (1 samples)
	maximum = 0 (1 samples)
Accepted flit rate average = 0 (1 samples)
	minimum = 0 (1 samples)
	maximum = 0 (1 samples)
Injected packet size average = -nan (1 samples)
Accepted packet size average = -nan (1 samples)
Hops average = -nan (1 samples)
Total run time 0.100236
