BEGIN Configuration File: runfiles/customconfig
// $Id $

// Copyright (c) 2007-2015, Trustees of The Leland Stanford Junior University
// All rights reserved.
//
// Redistribution and use in source and binary forms, with or without
// modification, are permitted provided that the following conditions are met:
//
// Redistributions of source code must retain the above copyright notice, this
// list of conditions and the following disclaimer.
// Redistributions in binary form must reproduce the above copyright notice,
// this list of conditions and the following disclaimer in the documentation
// and/or other materials provided with the distribution.
//
// THIS SOFTWARE IS PROVIDED BY THE COPYRIGHT HOLDERS AND CONTRIBUTORS "AS IS"
// AND ANY EXPRESS OR IMPLIED WARRANTIES, INCLUDING, BUT NOT LIMITED TO, THE
// IMPLIED WARRANTIES OF MERCHANTABILITY AND FITNESS FOR A PARTICULAR PURPOSE
// ARE DISCLAIMED. IN NO EVENT SHALL THE COPYRIGHT OWNER OR CONTRIBUTORS BE
// LIABLE FOR ANY DIRECT, INDIRECT, INCIDENTAL, SPECIAL, EXEMPLARY, OR
// CONSEQUENTIAL DAMAGES (INCLUDING, BUT NOT LIMITED TO, PROCUREMENT OF
// SUBSTITUTE GOODS OR SERVICES; LOSS OF USE, DATA, OR PROFITS; OR BUSINESS
// INTERRUPTION) HOWEVER CAUSED AND ON ANY THEORY OF LIABILITY, WHETHER IN
// CONTRACT, STRICT LIABILITY, OR TORT (INCLUDING NEGLIGENCE OR OTHERWISE)
// ARISING IN ANY WAY OUT OF THE USE OF THIS SOFTWARE, EVEN IF ADVISED OF THE
// POSSIBILITY OF SUCH DAMAGE.


//
// Flow control
//

num_vcs     = 16;
vc_buf_size = 8;

wait_for_tail_credit = 1;


vc_allocator = islip; 
sw_allocator = islip;
alloc_iters  = 2;

credit_delay   = 2;
routing_delay  = 0;
vc_alloc_delay = 1;
sw_alloc_delay = 1;
st_final_delay = 1;

input_speedup     = 1;
output_speedup    = 1;
internal_speedup  = 1.0;

//
// Traffic
//

sim_type = latency;

warmup_periods = 3;

sample_period  = 1000;  

sim_count          = 1;



//topoogy

topology = mesh;
k  = 8;
n  = 2;
//
// Routing


routing_function = custom_turn_local;
threshold_multiplier =  0.60;
packet_size = 1;

use_read_write = 0;

traffic       = randperm;

injection_rate = 0.23;




END Configuration File: runfiles/customconfig
Class 0:
Packet latency average = 34.0724
	minimum = 6
	maximum = 238
Network latency average = 34.0708
	minimum = 6
	maximum = 238
Slowest packet = 10016
Flit latency average = 34.0708
	minimum = 6
	maximum = 238
Slowest flit = 10016
Fragmentation average = 0
	minimum = 0
	maximum = 0
Injected packet rate average = 0.226906
	minimum = 0.191 (at node 12)
	maximum = 0.251 (at node 18)
Accepted packet rate average = 0.218766
	minimum = 0.174 (at node 34)
	maximum = 0.244 (at node 5)
Injected flit rate average = 0.226906
	minimum = 0.191 (at node 12)
	maximum = 0.251 (at node 18)
Accepted flit rate average= 0.218766
	minimum = 0.174 (at node 34)
	maximum = 0.244 (at node 5)
Injected packet length average = 1
Accepted packet length average = 1
Total in-flight flits = 521 (0 measured)
latency change    = 1
throughput change = 1
Class 0:
Packet latency average = 35.7413
	minimum = 6
	maximum = 414
Network latency average = 35.5414
	minimum = 6
	maximum = 414
Slowest packet = 17064
Flit latency average = 35.5414
	minimum = 6
	maximum = 414
Slowest flit = 17064
Fragmentation average = 0
	minimum = 0
	maximum = 0
Injected packet rate average = 0.228961
	minimum = 0.207 (at node 35)
	maximum = 0.247 (at node 18)
Accepted packet rate average = 0.224984
	minimum = 0.2015 (at node 30)
	maximum = 0.244 (at node 5)
Injected flit rate average = 0.228961
	minimum = 0.207 (at node 35)
	maximum = 0.247 (at node 18)
Accepted flit rate average= 0.224984
	minimum = 0.2015 (at node 30)
	maximum = 0.244 (at node 5)
Injected packet length average = 1
Accepted packet length average = 1
Total in-flight flits = 509 (0 measured)
latency change    = 0.0466962
throughput change = 0.0276408
Class 0:
Packet latency average = 36.5233
	minimum = 6
	maximum = 432
Network latency average = 36.4371
	minimum = 6
	maximum = 432
Slowest packet = 37102
Flit latency average = 36.4371
	minimum = 6
	maximum = 432
Slowest flit = 37102
Fragmentation average = 0
	minimum = 0
	maximum = 0
Injected packet rate average = 0.228563
	minimum = 0.2 (at node 13)
	maximum = 0.26 (at node 26)
Accepted packet rate average = 0.228016
	minimum = 0.199 (at node 14)
	maximum = 0.261 (at node 58)
Injected flit rate average = 0.228563
	minimum = 0.2 (at node 13)
	maximum = 0.26 (at node 26)
Accepted flit rate average= 0.228016
	minimum = 0.199 (at node 14)
	maximum = 0.261 (at node 58)
Injected packet length average = 1
Accepted packet length average = 1
Total in-flight flits = 544 (0 measured)
latency change    = 0.021409
throughput change = 0.013294
Warmed up ...Time used is 3000 cycles
Class 0:
Packet latency average = 36.2409
	minimum = 6
	maximum = 372
Network latency average = 35.8305
	minimum = 6
	maximum = 344
Slowest packet = 44727
Flit latency average = 36.6093
	minimum = 6
	maximum = 346
Slowest flit = 39760
Fragmentation average = 0
	minimum = 0
	maximum = 0
Injected packet rate average = 0.230219
	minimum = 0.202 (at node 52)
	maximum = 0.268 (at node 1)
Accepted packet rate average = 0.229875
	minimum = 0.203 (at node 52)
	maximum = 0.263 (at node 30)
Injected flit rate average = 0.230219
	minimum = 0.202 (at node 52)
	maximum = 0.268 (at node 1)
Accepted flit rate average= 0.229875
	minimum = 0.203 (at node 52)
	maximum = 0.263 (at node 30)
Injected packet length average = 1
Accepted packet length average = 1
Total in-flight flits = 566 (566 measured)
latency change    = 0.00779146
throughput change = 0.00808864
Class 0:
Packet latency average = 36.1111
	minimum = 6
	maximum = 372
Network latency average = 35.8748
	minimum = 6
	maximum = 344
Slowest packet = 44727
Flit latency average = 36.2632
	minimum = 6
	maximum = 346
Slowest flit = 39760
Fragmentation average = 0
	minimum = 0
	maximum = 0
Injected packet rate average = 0.229609
	minimum = 0.2125 (at node 52)
	maximum = 0.247 (at node 42)
Accepted packet rate average = 0.230039
	minimum = 0.213 (at node 52)
	maximum = 0.247 (at node 39)
Injected flit rate average = 0.229609
	minimum = 0.2125 (at node 52)
	maximum = 0.247 (at node 42)
Accepted flit rate average= 0.230039
	minimum = 0.213 (at node 52)
	maximum = 0.247 (at node 39)
Injected packet length average = 1
Accepted packet length average = 1
Total in-flight flits = 490 (490 measured)
latency change    = 0.00359327
throughput change = 0.000713194
Class 0:
Packet latency average = 36.3948
	minimum = 6
	maximum = 432
Network latency average = 36.1359
	minimum = 6
	maximum = 432
Slowest packet = 73316
Flit latency average = 36.3916
	minimum = 6
	maximum = 432
Slowest flit = 73316
Fragmentation average = 0
	minimum = 0
	maximum = 0
Injected packet rate average = 0.229656
	minimum = 0.212 (at node 60)
	maximum = 0.249667 (at node 42)
Accepted packet rate average = 0.229979
	minimum = 0.212 (at node 50)
	maximum = 0.25 (at node 39)
Injected flit rate average = 0.229656
	minimum = 0.212 (at node 60)
	maximum = 0.249667 (at node 42)
Accepted flit rate average= 0.229979
	minimum = 0.212 (at node 50)
	maximum = 0.25 (at node 39)
Injected packet length average = 1
Accepted packet length average = 1
Total in-flight flits = 483 (483 measured)
latency change    = 0.00779464
throughput change = 0.00026044
Draining all recorded packets ...
Draining remaining packets ...
Time taken is 6236 cycles
====== Overall Traffic Statistics ======
====== Traffic class 0 ======
Packet latency average = 36.5031 (1 samples)
	minimum = 6 (1 samples)
	maximum = 432 (1 samples)
Network latency average = 36.2444 (1 samples)
	minimum = 6 (1 samples)
	maximum = 432 (1 samples)
Flit latency average = 36.327 (1 samples)
	minimum = 6 (1 samples)
	maximum = 432 (1 samples)
Fragmentation average = 0 (1 samples)
	minimum = 0 (1 samples)
	maximum = 0 (1 samples)
Injected packet rate average = 0.229656 (1 samples)
	minimum = 0.212 (1 samples)
	maximum = 0.249667 (1 samples)
Accepted packet rate average = 0.229979 (1 samples)
	minimum = 0.212 (1 samples)
	maximum = 0.25 (1 samples)
Injected flit rate average = 0.229656 (1 samples)
	minimum = 0.212 (1 samples)
	maximum = 0.249667 (1 samples)
Accepted flit rate average = 0.229979 (1 samples)
	minimum = 0.212 (1 samples)
	maximum = 0.25 (1 samples)
Injected packet size average = 1 (1 samples)
Accepted packet size average = 1 (1 samples)
Hops average = 6.43858 (1 samples)
Total run time 2.66976
